# High level env vars
DOCKERREGISTRY=mayankchetan
GHREGISTRY=ghcr.io/mayankchetan


# envs for OpenFAST
OPENFAST_IMAGE_NAME=openfast
OPENFAST_MAIN=v3.5.0
OPENFAST_DEV=dev
